51
{"name": "Conformer 3660", "statusflags": ["topofail"], "energy": 254.26543822383786}
 O    4.44016304   -0.71255186    0.90275634
 O    0.95443349    1.76291425    0.33149374
 O   -0.08057843    2.51584641   -1.82990800
 O   -4.79157986    1.61451793    0.22842229
 O   -1.23063148   -1.56485273   -0.60838001
 O    1.28573137   -4.53075101    1.16792256
 N    1.28723320   -2.32751313    1.01952644
 N    2.57442236   -0.06014538   -0.10117472
 N    1.80860093    3.57114545   -0.62556237
 N   -1.86889697    3.22176828   -0.74742869
 N   -2.77740691    0.69463966   -0.09258247
 N   -1.84722301   -2.68024728    1.20475302
 C    2.73831216   -2.31358146    1.03698628
 C    3.28400649   -1.00055424    0.61731947
 C    3.20909910   -3.23509638   -0.17423381
 C    3.04291702    1.25710738   -0.46531736
 C    1.96552594    2.23111460   -0.27444277
 C    3.28004033    1.20477239   -1.99025565
 C    0.48417223    4.13040303   -0.22497078
 C   -0.55461354    3.27302763   -0.94790256
 C   -3.20063057    3.16977314   -0.54437132
 C   -3.65482669    1.77511154   -0.10297655
 C   -3.06807883   -0.58289327    0.47692891
 C   -2.01403684   -1.61061007    0.31810225
 C   -4.31161718   -1.07410102   -0.39169781
 C   -0.92153076   -3.71747678    1.15473997
 C    0.52588673   -3.48310863    1.11474176
 H    0.80726501   -1.45200877    0.96303429
 H    1.64428675   -0.33120515   -0.40829819
 H    2.48575072    4.08949488   -1.07656675
 H   -2.00976636    2.34599475   -1.78447042
 H   -1.88465507    0.85643299   -0.53424822
 H   -2.52365028   -2.65536744    1.98865556
 H    3.21081335   -2.72481083    1.90828850
 H    3.96204945    1.54094761    0.05095026
 H    0.34133326    5.14968728   -0.52486992
 H    0.33151298    3.99566897    0.83606740
 H   -3.91434232    3.43252531   -1.36757266
 H   -3.47340110    3.88816782    0.28070142
 H   -3.46939917   -0.52583084    1.50192533
 H   -1.12242669   -4.40414431    2.04388075
 H   -1.12576433   -4.41233947    0.24368838
 H    3.34559468   -4.22378000    0.23130721
 H    2.36140524   -3.21055202   -0.86249062
 H    4.09950859   -2.80760880   -0.62838109
 H    2.46986816    0.66193372   -2.49665441
 H    4.23509428    0.73896478   -2.23426621
 H    3.29494512    2.23597398   -2.40589105
 H   -5.20759386   -1.01975850    0.21907101
 H   -4.31355684   -0.55568809   -1.34694673
 H   -4.10376487   -2.14135633   -0.57888616
