40
{"name": "Conformer 771", "statusflags": ["topofail"], "energy": 78.32021886623147}
 C   -3.11439889    0.83345676    0.74279560
 N   -1.98212064   -1.27517041   -0.22172481
 C   -0.50786545    2.95835037    0.09432768
 N   -1.80365544    2.65003292    0.17220659
 O   -2.54135585    0.44949625   -1.49767299
 C   -3.12928963    2.33463513    0.25187116
 C   -2.55363525    0.01517850   -0.33635438
 O   -0.23735722    4.09104181   -0.36869271
 C   -1.47342343   -1.92617184   -1.38288943
 C    0.66735947    2.06703219    0.50780495
 H   -2.39614813    0.86006638    1.60752464
 H   -4.07262604    0.63088532    1.12017092
 H   -1.96563528   -1.66850696    0.69228983
 H   -2.14822074    3.89325932   -0.25337571
 H   -3.73798015    2.82099250    1.04570380
 H   -3.76490483    2.36534563   -0.66570846
 H   -2.39144154   -2.25770022   -1.96945526
 H   -0.84630831   -1.27279557   -2.01417706
 H    0.33911541    1.05049615    0.36303881
 H    0.87135596    2.28395598    1.59828503
 C    3.52250159   -1.12575001    0.48972243
 N    2.91639009    1.40648434    0.24848836
 C    0.25193765   -2.94276273    0.01137187
 N    1.53954565   -2.39596649   -0.18864808
 O    1.62571357   -0.18579981   -0.56899366
 C    2.39601115   -2.12279638    0.91895508
 C    2.67023612    0.04745790    0.04056353
 O   -0.03828310   -3.15434205    1.18121120
 C    1.93662973    2.39758562   -0.22379922
 C   -0.73579413   -3.23494206   -1.07701409
 H    4.01807706   -1.59079073   -0.35044946
 H    4.14220440   -0.90487800    1.34215967
 H    3.74722164    1.68154569    0.71381852
 H    1.79694483   -2.25017930   -1.14266376
 H    2.85311865   -3.03111478    1.35983117
 H    1.82278895   -1.56482973    1.68268716
 H    1.82920520    2.27612905   -1.32202828
 H    2.25930060    3.40843086    0.06537544
 H   -1.46842990   -3.95420892   -0.65890805
 H   -0.29678379   -3.66315272   -1.97394696
40
{"name": "Conformer 784", "statusflags": ["topofail"], "energy": 78.97151695052607}
 C    0.91207801    3.11009991    1.14078295
 N    2.36227982    1.22530022    0.03639126
 C   -2.48989575    1.43213613    0.63226264
 N   -1.26130121    2.14035479    0.38572753
 O    0.98043797    2.47385160   -1.14127931
 C   -0.43780119    2.50614018    1.46906176
 C    1.41651818    2.28577755    0.03045389
 O   -2.72980413    1.27289187    1.82616860
 C    2.65107707    0.59044710   -1.20871484
 C   -3.33385549    0.93313844   -0.51696252
 H    0.81934228    4.15637130    0.75295605
 H    1.55818199    3.13600871    2.01634565
 H    2.76067359    0.98965998    0.90489686
 H   -1.09494285    2.33730243   -0.57338300
 H   -0.17344653    1.56453548    2.04727949
 H   -0.90738423    3.18902779    2.20959441
 H    1.62380044    0.27583814   -1.61409313
 H    3.08517801    1.31258073   -1.95605418
 H   -2.80148020    0.96109895   -1.45619713
 H   -4.24814945    1.52080551   -0.53301703
 C   -0.72747960   -3.16251143   -0.40790810
 N   -2.47174147   -1.26065708    0.03256331
 C    2.74497703   -1.67284481   -0.31575529
 N    1.46613065   -2.12909994   -0.65312195
 O   -0.54777958   -1.40562042    1.06088246
 C    0.74970837   -3.13549641    0.05958802
 C   -1.36087205   -1.92914099    0.17131712
 O    3.25937697   -2.13413546    0.67721345
 C   -3.64615559   -0.55388476   -0.11408705
 C    3.47186671   -0.63280763   -1.14083323
 H   -1.23852419   -4.03026840    0.03760080
 H   -0.73105212   -3.20076676   -1.49516842
 H   -2.15876699   -0.47773061    1.07795452
 H    1.05031882   -1.69061255   -1.47367830
 H    1.11584683   -4.15367905   -0.01410229
 H    0.73758415   -2.86467520    1.13371306
 H   -4.35750066   -0.53777656    0.73701842
 H   -4.15960737   -0.94934879   -1.03667494
 H    4.45703172   -0.40491184   -0.66439863
 H    3.65513205   -1.08739811   -2.12434294
40
{"name": "Conformer 3782", "statusflags": ["topofail"], "energy": 69.27445581584159}
 C   -1.37425451   -2.23060474    1.52780189
 N   -2.63600839   -0.56758880    0.08546066
 C    1.61922422   -1.88842039    1.00597764
 N    0.75817774   -2.92125476    0.62017320
 O   -1.39231612   -2.14662200   -0.83082402
 C   -0.39625894   -3.33449434    1.32687885
 C   -1.81063210   -1.63408498    0.23502437
 O    1.35602874   -1.28988284    2.01401418
 C   -3.45180096    0.48652291   -0.06242799
 C    2.85320997   -1.52225242    0.19421257
 H   -2.30421711   -2.59811920    2.07247315
 H   -0.91032164   -1.43913642    2.17837503
 H   -2.50469234   -0.65360731   -1.25873348
 H    1.02706061   -3.40625290   -0.23108933
 H   -0.97822642   -4.12630831    0.76400140
 H   -0.15368115   -3.87068247    2.28504856
 H   -4.45651459    0.15480463   -0.54911171
 H   -3.88920728    0.83754388    0.95138275
 H    3.57533532   -2.36886763    0.33517442
 H    2.56568823   -1.53445850   -0.85334712
 C    1.17242373    2.56570135   -0.47575787
 N    2.65756698    0.85484753    0.69243859
 C   -1.56402747    1.76481189   -1.05028244
 N   -0.88256958    2.88161365   -1.60064757
 O    2.37812300    0.74017803   -1.50274509
 C    0.53523317    2.82876147   -1.80194994
 C    2.06742583    1.37820896   -0.49046268
 O   -0.80161580    0.82469674   -0.77997148
 C    3.52095205   -0.27698655    0.70317379
 C   -3.01437250    1.70571677   -0.81771103
 H    1.79042871    3.45237795   -0.13592011
 H    0.44116018    2.44591983    0.33615234
 H    2.40114330    1.34768647    1.52245084
 H   -1.44291884    3.67179170   -1.82576059
 H    0.86681982    3.87163279   -2.12324313
 H    0.87016444    2.11586647   -2.59000966
 H    3.82384154   -0.52262713    1.77536623
 H    4.49575377   -0.09865710    0.20729984
 H   -3.22242003    2.58293592   -0.13138384
 H   -3.58970560    1.91928983   -1.72150122
40
{"name": "Conformer 12873", "statusflags": ["topofail"], "energy": 76.78108948630198}
 C    1.66604815    1.67436199   -1.83291025
 N    2.78831623   -0.36837892   -0.67306504
 C   -0.95860805    2.49966348   -0.34798391
 N    0.34711382    3.00654485   -0.24179151
 O    2.49848869    1.56876072    0.32016174
 C    1.28052772    3.05077133   -1.32750714
 C    2.33909498    0.91650912   -0.71558689
 O   -1.26325740    2.09063483   -1.45381785
 C    3.22326308   -1.61235564   -0.63181939
 C   -1.90752951    2.46130632    0.77565950
 H    0.76398150    1.08577465   -2.05767256
 H    2.32947038    1.73342309   -2.69147171
 H    3.29270559   -0.14493082    0.57854453
 H    0.59149329    3.34121361    0.67595231
 H    0.85386403    3.60443532   -2.20158974
 H    2.21962967    3.55793530   -1.08165987
 H    4.33189238   -1.75019718   -0.54921244
 H    2.98958400   -2.22337855   -1.57468238
 H   -2.19629958    3.54362820    0.97094966
 H   -1.36923843    2.12983740    1.72980000
 C   -2.48707637   -2.15561645    0.82142143
 N   -3.16887862    0.33645236    0.89225183
 C    1.15281715   -2.79303436   -0.01494347
 N   -0.06363102   -2.48443143    0.63438371
 O   -1.45477135   -0.41940630   -0.32690398
 C   -1.33861937   -2.86719941    0.09665001
 C   -2.36283008   -0.68057460    0.44614445
 O    0.96059689   -3.38897459   -1.10342574
 C   -3.15528851    1.71095131    0.56892374
 C    2.52080597   -2.48051079    0.45404852
 H   -3.43784999   -2.52473341    0.42800692
 H   -2.40885412   -2.21012387    1.91194877
 H   -3.89764081    0.00953510    1.58138314
 H    0.02559321   -1.97944695    1.49610715
 H   -1.46110342   -3.95939493    0.38061649
 H   -1.43500873   -2.83905097   -0.98544736
 H   -3.46636983    1.82115193   -0.53516047
 H   -4.03407945    2.21409693    1.11685586
 H    3.08515979   -3.43187572    0.43366650
 H    2.60648809   -2.04337298    1.43141864
