58
{"name": "Conformer 1174", "statusflags": ["topofail"], "energy": 302.6140502720214}
 N   -3.67162375   -0.24486330   -0.61474879
 C   -3.29150783   -1.54341944   -0.74301752
 C   -2.07840292   -1.74404287    0.13251971
 O   -1.67437543   -0.86371514    0.87022186
 N   -1.35959086   -2.91928384    0.14632959
 C   -0.03495638   -2.84624298    0.84582805
 C    0.67124006   -1.91319867   -0.11927400
 O    0.49327690   -2.09081050   -1.37049764
 C    0.43109588   -4.23497470    0.78920391
 C   -0.69968168   -5.12779203    0.35168850
 C   -1.62846817   -4.18713762   -0.35907683
 N    1.51997935   -0.84590773    0.14120850
 C    1.92691052    0.03569398   -0.98171245
 C    1.02865415    1.25659445   -0.81769677
 O    0.57866049    1.54117033    0.31013072
 C    3.35305393    0.36181762   -1.04062785
 C    3.97032566    1.02845496    0.09896120
 C    4.60153759    0.20887086    1.06429418
 C    4.01083751    2.37187501    0.33738891
 C    5.21846607    0.73558701    2.17149086
 C    4.63052726    2.89743370    1.45076058
 C    5.24675246    2.12401043    2.39276266
 N    0.61427472    2.12210151   -1.82739134
 C   -0.33996546    3.21990082   -1.46269127
 C   -1.51945960    2.55985950   -0.87319315
 O   -1.49797856    1.31481385   -0.82385420
 N   -2.69481783    3.06579580   -0.35505646
 C   -3.54678757    2.12550480    0.42384591
 C   -4.04302040    1.02368774   -0.48950379
 O   -4.95049710    1.36354682   -1.25945776
 C   -4.66143444    2.81522136    1.13279740
 H   -2.93081139   -1.90683740   -1.76619704
 H   -4.05387824   -2.33294004   -0.47394309
 H   -0.15616594   -2.39773947    1.83486609
 H    0.80759475   -4.61758011    1.77308086
 H    1.21942106   -4.33749337   -0.00271501
 H   -0.37448310   -5.88040143   -0.39601035
 H   -1.24032985   -5.57871790    1.20256714
 H   -2.66531108   -4.56938697   -0.22056734
 H   -1.45919999   -4.16948812   -1.47687021
 H    1.60032404   -0.36361932   -1.96292237
 H    3.51168276    0.99319556   -1.97129443
 H    3.93900071   -0.56444377   -1.26205380
 H    4.59561661   -0.85934937    0.92063843
 H    3.52807025    3.04506471   -0.38657257
 H    5.71028710    0.13232982    2.92040899
 H    4.65388104    3.98556809    1.63068508
 H    5.74360863    2.50835501    3.27649445
 H    0.15212570    3.96632573   -0.84346327
 H   -0.58357813    3.69944431   -2.43077421
 H   -2.90256143    1.61189622    1.16683172
 H   -4.43357471    3.16126460    2.14848946
 H   -5.59056668    2.20597349    1.06408815
 H   -4.91652160    3.75620971    0.55469372
 H    1.85876851   -0.66289745    1.04485738
 H    0.93356511    2.01431387   -2.75011349
 H   -2.96185695    3.99372087   -0.50111830
 H   -4.58813178   -0.44331899   -1.59157449
