75
{"name": "Conformer 365", "statusflags": ["topofail"], "energy": 279.30982357977996}
 O    2.11322803    4.38412231    0.54847490
 O    2.89601018   -3.92347743    1.61185459
 O   -2.12011819   -0.79600357    1.28970792
 N   -0.80539924    3.91968039    0.61098493
 N    2.17537135    2.28894242   -0.18512059
 H    1.65530353    1.57445442   -0.67318939
 N    3.42312283   -1.66298696    0.58233628
 N    0.90327667   -4.22961775    0.77177221
 H    1.37359850   -4.97301935    1.82083590
 N   -2.47334315   -2.43872057   -0.99127020
 N   -2.89193507    1.05134041    0.34919125
 H   -3.28888048    1.46712869   -0.48042231
 C   -0.51131825    5.27318859    1.07565890
 H    0.29837773    5.22103897    1.80869165
 H   -1.42117219    5.74378524    1.51546600
 C   -0.07173326    6.06027421   -0.15168332
 H    0.96123970    6.46003420   -0.01670759
 H   -0.80000750    6.83815712   -0.42028997
 C    0.00997412    5.04167992   -1.28749286
 H    0.87773741    5.15926796   -1.91779936
 H   -0.94810843    4.99689233   -1.83876836
 C    0.10861015    3.74821050   -0.50358204
 H   -0.19392847    2.86360678   -1.09402187
 C    1.48592279    3.50376298   -0.02875155
 C    3.50990207    2.08422656    0.29990915
 H    4.23598783    2.85274670   -0.04696966
 H    3.53950880    2.16651279    1.42819093
 C    4.00657234    0.66839502    0.01620354
 H    3.98322978    0.52907159   -1.08627875
 H    5.05194525    0.64368484    0.32067711
 C    3.10433420   -0.30793785    0.69560783
 H    2.07932525   -0.14688688    0.30919920
 H    3.08011302   -0.02119491    1.76952161
 C    4.75767085   -2.07663736    0.52012211
 H    5.52882180   -1.32851655    0.72747098
 H    4.93402627   -2.94756152    1.17612605
 C    4.89227175   -2.53204274   -0.91465375
 H    5.75865653   -3.21569484   -1.03985639
 H    4.94759539   -1.65678258   -1.59304213
 C    3.56028154   -3.21260492   -1.16128497
 H    3.22304644   -3.12613151   -2.21273506
 H    3.69659077   -4.29034150   -0.87763083
 C    2.59201053   -2.51044708   -0.19405746
 H    1.78071783   -1.99337506   -0.71246977
 C    2.05179310   -3.57317090    0.70335264
 C   -0.26576443   -4.89783762    0.84146179
 H   -0.86890712   -4.86545444    1.80556813
 H   -0.27486442   -6.01197629    0.61827035
 C   -1.23765703   -4.37665108   -0.27743416
 H   -0.76767264   -4.47042929   -1.25066939
 H   -2.11820093   -5.02374032   -0.22548705
 C   -1.64329219   -2.95278187    0.01566872
 H   -2.23840948   -3.01666158    0.96607630
 H   -0.70383875   -2.38168308    0.17069868
 C   -3.53728900   -3.23968942   -1.45680041
 H   -3.54611271   -3.13338305   -2.59587819
 H   -3.56115329   -4.29397218   -1.22346639
 C   -4.83553324   -2.57065854   -1.03793425
 H   -5.11016734   -2.89901398   -0.02510995
 H   -5.64186873   -2.68589827   -1.78684418
 C   -4.44387430   -1.11737202   -1.05282766
 H   -4.75595833   -0.58227656   -1.97066003
 H   -4.94700873   -0.61036776   -0.20823739
 C   -2.92106823   -1.10629884   -0.92278109
 H   -2.51977979   -0.55844161   -1.83064538
 C   -2.61734894   -0.32695900    0.28141704
 C   -2.63457092    1.85508262    1.51527663
 H   -3.31746128    1.52057706    2.35766493
 H   -1.58027231    1.82088027    1.84542943
 C   -3.06170924    3.28529936    1.20464784
 H   -3.02125748    3.95388089    2.07676058
 H   -4.08061494    3.32210590    0.79460152
 C   -2.15842158    3.83829525    0.11231986
 H   -2.15325831    3.13082805   -0.71652908
 H   -2.50689441    4.81754425   -0.21339922
