62
{"name": "Conformer 1029", "statusflags": ["topofail"], "energy": 268.4224702929531}
 O    0.87133659   -0.28094119    2.50526478
 C    4.09871519   -0.80377014    0.58979721
 O   -1.42264501    1.23794707    1.89681109
 H   -0.64060170    1.68560426    2.36607371
 C    0.86517808   -0.51271364    1.25885626
 C    4.77210854   -0.89195983   -0.58321637
 H    4.51427374   -1.70447946   -1.27485929
 C    5.41416646    1.13673581    1.14100424
 H    5.66211867    1.94483173    1.83542416
 N    1.73516854   -1.32267693    0.50460890
 C    0.21852143   -0.43466997   -0.94759186
 C   -1.06409065   -2.79110499   -0.60625195
 C    4.42521260    0.22872872    1.46640778
 H    3.87049361    0.27151304    2.39237305
 C    3.02871359   -1.77522045    0.94503485
 H    3.03880247   -2.00661465    2.03837373
 H    3.30983049   -2.73871935    0.44128747
 O   -0.09421489   -0.06710220   -2.09339140
 C   -0.13412750    0.07608389    0.31747926
 C    5.76656263    0.02403540   -0.90685838
 H    6.29644524   -0.05485841   -1.84142748
 C   -1.62690829   -2.60189249    0.66683301
 H   -1.03019859   -2.63770263    1.55915271
 C    6.10425837    1.05096267   -0.05238266
 C   -1.16801287    0.86426462    0.56496629
 O   -5.14546276   -2.04337936   -0.12375905
 C    0.39390861   -2.92459893   -0.63842973
 H    0.73419210   -3.42046882    0.29067510
 H    0.75243252   -3.57662211   -1.46460835
 C   -2.08006608    1.39290941   -0.44999127
 H   -1.50957489    1.35370063   -1.46365678
 H   -2.90738034    0.69983741   -0.55662512
 O    7.09083892    1.99114520   -0.32503252
 C   -2.98795621   -2.36958942    0.80466320
 H   -3.37234108   -2.23265728    1.79734535
 C    1.11827229   -1.60647100   -0.75182566
 H    1.87211516   -1.64147064   -1.58820576
 C   -1.85970906   -2.75531605   -1.71769589
 H   -1.48401010   -2.89933831   -2.69186494
 C   -3.23902800   -2.51886635   -1.56027508
 H   -3.86184003   -2.49067583   -2.43017542
 C   -2.43841572    2.83940639   -0.35294909
 H   -1.49864508    3.46194148   -0.49845644
 H   -3.03869232    3.13534479   -1.28067225
 C   -3.72208295   -2.33629685   -0.33189316
 C   -4.64643585    2.81497279    0.94612995
 H   -5.25226036    3.30232590    0.14071534
 H   -5.01347656    3.25169504    1.91643904
 C   -5.33224472   -0.71402611   -0.07963486
 H   -5.16073867   -0.70490802   -1.42303983
 H   -6.61860447   -0.93251292   -0.42350675
 C   -5.52856147    0.68304206   -0.03325884
 H   -6.18659466    1.29332513   -0.62060735
 C   -3.20895316    3.29311355    0.81217322
 H   -3.32050483    4.43286937    0.72318874
 H   -2.63079156    3.13065817    1.74660464
 C   -4.74994645    1.36582549    0.90387095
 H   -4.06920188    0.80236758    1.53914349
 C    7.86648260    2.02105617   -1.48961710
 H    8.04067212    0.96339842   -1.81609600
 H    7.33459238    2.54813833   -2.30244728
 H    8.84890584    2.49384379   -1.26210036
