67
{"name": "Conformer 1480", "statusflags": ["topofail"], "energy": 276.04150741351555}
 N    3.69163785    0.70001894    0.89893043
 H    3.82970412    0.07856968    1.70615885
 C   -1.14254272    2.61340860   -1.51849518
 H   -2.22063289    2.58033954   -1.56605390
 O   -2.78391357   -2.57349664    0.94068829
 O    2.23106647   -0.61914205   -2.01818856
 C   -0.38169760    3.03390700   -2.58636706
 H   -0.88507645    3.35490391   -3.51539409
 N   -3.28144884    0.74168682   -0.14737211
 H   -3.78277719    0.91524221   -1.01992983
 C    0.98703660    3.06119627   -2.50050968
 H    1.62988872    3.38444500   -3.30672544
 N   -1.67408902   -1.62220825   -0.71353374
 H   -1.56905447   -0.82161204   -1.30947267
 N    1.51092463   -1.06089492    0.00144597
 H    0.75521788   -1.22125742   -1.07842889
 C    1.63776516    2.66026382   -1.31969402
 H    2.69576274    2.70799041   -1.27007743
 C    1.47270763    1.85160970    0.96351093
 C    0.63865446    1.48359802    1.96402069
 H    1.08655768    1.17966616    2.90971567
 C   -0.69954962    1.46412672    1.87579565
 H   -1.35405082    1.16020217    2.71091320
 C   -1.31690308    1.83451758    0.69846214
 C   -0.50272934    2.21612000   -0.34802092
 C    0.89434465    2.24267926   -0.26096812
 C   -2.78187058    1.86482766    0.57371741
 H   -3.16450412    1.82231506    1.65168247
 H   -3.19644877    2.78162690    0.09806283
 C   -2.67306894   -1.55082550    0.25018935
 C   -3.58889370   -0.44679188    0.54198908
 H   -3.70866560   -0.30517277    1.63950339
 C   -4.96181049   -0.89427511   -0.05589149
 H   -4.75324331   -0.99887384   -1.15424782
 C   -0.80642422   -2.76744362   -0.89532788
 H   -1.47982363   -3.67157837   -0.93576951
 H   -0.19379040   -2.78662927   -1.76604548
 C   -0.01984147   -2.98976814    0.41494812
 H   -0.67573816   -3.36385839    1.18181220
 H    0.80114116   -3.65230423    0.17456212
 C    0.51859181   -1.60044028    0.76903100
 H   -0.41815919   -1.00639826    0.89967037
 H    0.94795620   -1.76068971    1.81434199
 C    2.49469027   -0.52600157   -0.75957626
 C    3.77559293    0.11929992   -0.39490689
 H    3.99586975    0.87917437   -1.15395195
 C    2.94562002    1.86667073    1.10907931
 H    3.11559889    2.16067494    2.20579580
 H    3.42941445    2.72090014    0.53868021
 C    4.92524191   -0.87359410   -0.37432077
 H    4.78752594   -1.60714740    0.42723244
 C    5.14738497   -1.54149692   -1.67519250
 H    4.42329163   -1.24635662   -2.46344303
 H    6.14427435   -1.28446794   -2.07383233
 H    5.17605710   -2.64866652   -1.52084157
 C    6.16680619   -0.03972075   -0.04506122
 H    6.95915742   -0.67162854    0.34644572
 H    6.53868006    0.35907834   -1.02406208
 H    5.90502079    0.84463622    0.57028507
 C   -5.99303504    0.15219691    0.17250664
 H   -5.91838891    0.62594187    1.17985691
 H   -6.10351768    0.87673067   -0.63442134
 H   -7.00295718   -0.37157725    0.22028669
 C   -5.41127946   -2.20429268    0.48577542
 H   -6.53014526   -2.22318927    0.38243248
 H   -5.06097166   -3.06872160   -0.09940673
 H   -5.22214106   -2.31804366    1.58656092
