64
{"name": "Conformer 355", "statusflags": ["topofail"], "energy": 298.88894545183206}
 C    1.14003785   -2.52537563    0.38391483
 C    1.01299302   -2.54548769    1.74692991
 H    1.91376335   -2.56167821    2.38418830
 C   -0.21891538   -2.54592046    2.33843489
 H   -0.32574637   -2.56539325    3.44266421
 C   -1.34230805   -2.52526141    1.54217594
 H   -2.32945403   -2.52535242    2.02761600
 C   -1.30394272   -2.50273447    0.15741323
 C   -0.00768321   -2.50431273   -0.37825666
 H    0.04160535   -2.48462031   -1.47772106
 C   -2.53470284   -2.51271343   -0.60628486
 H   -3.08635847   -3.51047054   -0.40662199
 H   -2.30445121   -2.64212531   -1.72622692
 N   -3.53035376   -1.52672465   -0.53060322
 C   -3.32618672   -0.27019711   -1.23124702
 H   -2.94162693   -0.52562514   -2.23664725
 C   -2.28924298    0.47138755   -0.46207895
 N   -1.37436899    1.38318403   -0.99060750
 C   -0.27485750    1.99703195   -0.20298293
 H   -0.74200031    2.44573080    0.67510592
 H    0.31318682    2.65240464   -0.83980522
 C    0.44818398    0.74775817    0.21125325
 H    0.45410627    0.13552976   -0.82660307
 H   -0.39020623    0.12050746    0.71338623
 N    1.62567116    0.52506999    0.72891198
 C    2.84078176    0.29527384    1.26312075
 C    3.85201797   -0.72934925    0.74642771
 H    4.00039354   -1.38118466    1.65320754
 N    3.35948753   -1.53049941   -0.28411963
 C    2.48293418   -2.58202006   -0.17050302
 H    2.38076909   -3.07362661   -1.21845823
 H    3.07838745   -3.44046760    0.34313621
 C   -4.59686434    0.48864751   -1.40764083
 H   -4.35989058    1.42937014   -1.98797761
 H   -5.24269189   -0.11257092   -2.10406936
 C   -5.36019327    0.88778918   -0.21409879
 H   -5.75161440    0.08853200    0.41489942
 C   -6.62169327    1.61829761   -0.75024924
 H   -6.98880842    2.24466374    0.07424889
 H   -7.35388009    0.83105440   -1.05405042
 H   -6.31747693    2.27279369   -1.59056183
 C   -4.64680456    1.96410797    0.59184595
 H   -3.75549576    2.37259004    0.07949092
 H   -5.30780407    2.84787235    0.78489845
 H   -4.33133195    1.61429410    1.59338019
 O   -2.18289855    0.26810928    0.75144903
 O    3.12619579    0.98228327    2.25890436
 C    5.10497865   -0.03027876    0.39614251
 H    5.58634605    0.42573944    1.32712592
 H    5.85336832   -0.83904214    0.11538346
 C    5.10397259    0.99591347   -0.65202829
 H    4.91217690    0.52393382   -1.64914115
 C    4.24110460    2.20463045   -0.46744677
 H    3.19410183    2.08372311   -0.84545751
 H    4.30029287    2.66701623    0.53384435
 H    4.61832644    3.05374836   -1.14588196
 C    6.54975525    1.54066955   -0.73371545
 H    7.28874710    0.73703916   -0.67121321
 H    6.64952664    2.18640912   -1.63347508
 H    6.63112654    2.23614834    0.14569536
 H    1.35724819    1.44794664    1.70303243
 H    3.22765626   -0.98538406   -1.16181062
 H   -4.08264544   -1.44151361    0.32540586
 H   -1.46674413    1.63272866   -1.94422398
