72
{"name": "Conformer 125", "statusflags": ["topofail"], "energy": 333.3643821802312}
 C    2.00474816    0.39437864   -0.70710032
 C    2.79425815   -0.41746980    0.10949903
 C    2.94348707   -1.77220239   -0.06963637
 C    2.28161516   -2.34962838   -1.10273989
 C    1.48094489   -1.54631146   -1.93785033
 C    1.34987842   -0.19530806   -1.74086385
 C    1.92224191    1.77546997   -0.29152119
 C    0.74121815   -2.35770434   -2.97884452
 O   -0.15837746   -3.20468500   -2.14742322
 N    0.91798632    2.57340267    0.09244349
 C   -0.09852451    3.38111487    0.48110797
 C   -2.07872614   -2.99836992   -0.48184579
 C   -1.32551038    2.62124830    0.93132334
 C   -2.37866599    2.38961298   -0.04542627
 N   -2.17309240   -4.44372525   -0.80706857
 C   -3.42535353   -2.46337835   -0.34637523
 C   -3.32880612    1.27929178    0.33532801
 C   -2.90036194    0.00621049   -0.02788733
 C   -3.67259074   -1.09015676    0.07830143
 C   -4.96856328   -0.87120050    0.60156616
 C   -5.44073219    0.35466699    0.98170953
 C   -4.57467179    1.45224246    0.83384703
 C   -1.13760590    6.22420503   -1.84814401
 C   -1.12856034    4.96579497   -1.23008955
 C   -0.28304354    4.66179370   -0.22934669
 C    0.59452066    5.70474333    0.14825862
 C    0.59846508    6.92217877   -0.44052871
 C   -0.26630428    7.20662172   -1.44761271
 C   -1.14390189   -2.44763872   -1.44678581
 C   -1.37441061   -3.04247712    0.91485085
 O    3.06324985    2.35270859   -0.27876729
 O   -1.11172145   -1.25343486   -1.73761449
 C    3.23319054   -3.40558347    1.72180087
 C    4.02031101   -4.13225860    2.61037209
 C    5.39655253   -3.95866591    2.52628169
 C    5.97225963   -3.11685471    1.61516778
 C    5.16958434   -2.38655628    0.71945309
 C    3.79847905   -2.55388662    0.80045266
 C    5.73761319   -1.56060297   -0.25331229
 N    6.24478099   -0.82588008   -1.08988437
 H    7.03988031   -3.02345994    1.59352484
 H    6.02261110   -4.51738690    3.21841475
 H    3.55312214   -4.79330164    3.31999326
 H    2.15813510   -3.48505905    1.72766899
 H   -0.30680606   -3.22433422    0.70049601
 H   -1.75367813   -3.91116837    1.48627980
 H   -1.58633619   -2.13457518    1.48305417
 H   -0.22785724    8.18921744   -1.88534394
 H    1.30801701    7.68666180   -0.10998115
 H    1.31670692    5.53748026    0.95615688
 H   -1.80350679    4.26525690   -1.62743563
 H   -1.81656115    6.44812431   -2.64457171
 H   -4.90184991    2.44325615    1.11711928
 H   -6.43338320    0.51456725    1.38186397
 H   -5.65664644   -1.72484982    0.72046425
 H   -1.88449228   -0.00538952   -0.32930333
 H   -4.00826395   -3.18159885    0.29826054
 H   -3.93772138   -2.58871127   -1.35405841
 H   -1.27124663   -4.91136910   -0.59864748
 H   -2.98796510   -4.80261045   -0.29861218
 H   -2.38221552   -4.47599595   -1.83192512
 H   -2.05831218    2.12503445   -1.05989167
 H   -3.00545958    3.33330182   -0.09785452
 H   -0.95034246    1.60554659    1.31499734
 H   -1.70766736    3.12504312    1.84155006
 H    0.21891992    3.83420081    1.57387132
 H    1.79840342    3.60726813    0.24576605
 H    1.38109691   -3.06981174   -3.48565233
 H    0.17406799   -1.76209856   -3.67454528
 H    0.74233893    0.37092051   -2.44391272
 H    2.35787600   -3.43606024   -1.30592929
 H    3.31327516    0.09019554    0.92823203
72
{"name": "Conformer 1212", "statusflags": ["topofail"], "energy": 338.8659948010565}
 C    1.37087861   -0.44630001    0.08312618
 C    2.71948244   -0.70376263    0.30741281
 C    3.59294956    0.32450495    0.55425579
 C    3.07346284    1.61541866    0.57495278
 C    1.75039806    1.85324486    0.35654265
 C    0.88462879    0.80447734    0.10650284
 C    0.50500104   -1.59381538   -0.27989904
 C    1.23460391    3.28561573    0.30624830
 O    0.02844276    3.26363328   -0.32420350
 N   -0.56024930   -2.18897351   -0.06339450
 C   -1.81083707   -2.88773211    0.19073543
 C   -2.08567440    4.01704490   -1.30773274
 C   -2.61759210   -2.09427223    1.15022103
 C   -3.82596665   -1.44078873    0.73481051
 N   -2.70030841    5.28103316   -1.63807130
 C   -2.92846044    3.21457643   -0.38201113
 C   -3.79784931   -0.36560108   -0.27266329
 C   -3.38622793    0.88418495    0.08030326
 C   -3.45101612    1.92379455   -0.85663298
 C   -3.93787640    1.65922957   -2.09254683
 C   -4.36904181    0.39720973   -2.50034741
 C   -4.28013185   -0.58752227   -1.55519965
 C   -1.01438796   -6.56396819    0.82815986
 C   -1.44811532   -5.36003367    0.25423508
 C   -1.35893981   -4.17718676    0.91175110
 C   -0.85257583   -4.09491072    2.15566985
 C   -0.42513885   -5.25937390    2.73577289
 C   -0.48849973   -6.47503489    2.11759334
 C   -0.76068326    4.34471053   -0.61432160
 C   -1.64774619    3.34528260   -2.58923033
 O    1.20529317   -2.26363518   -1.27154537
 O   -0.48498921    5.50128485   -0.36205920
 C    5.53507731   -0.79922210    1.59703363
 C    6.88527061   -0.95418909    1.72940476
 C    7.77553226   -0.18882002    0.99521182
 C    7.23822660    0.73475357    0.12368386
 C    5.88280633    0.90865435   -0.02642140
 C    5.01903266    0.11069261    0.74262382
 C    5.38782143    1.89871131   -0.97098727
 N    5.00358548    2.67851009   -1.71221425
 H    7.92717343    1.32183565   -0.46734095
 H    8.83906924   -0.31934858    1.10067035
 H    7.31198934   -1.69425219    2.41104658
 H    4.84563114   -1.40138469    2.15150189
 H   -0.60110000    3.66844097   -2.89195901
 H   -2.26253910    3.72018253   -3.47026336
 H   -1.71780595    2.25007645   -2.58967519
 H   -0.15539919   -7.41058541    2.56409721
 H    0.00513668   -5.25649680    3.73759057
 H   -0.79229114   -3.17332358    2.68343026
 H   -1.86848425   -5.40873679   -0.75406119
 H   -1.07941297   -7.49625796    0.28866739
 H   -4.56772729   -1.61424043   -1.78713987
 H   -4.71469002    0.25016835   -3.49277043
 H   -4.03290277    2.51156144   -2.77765714
 H   -3.02581654    1.04802402    1.07931431
 H   -3.70899976    3.89812913    0.08094438
 H   -2.25027606    3.03681575    0.53647639
 H   -2.03790647    6.10479663   -1.66622667
 H   -3.45643045    5.43705044   -0.89476724
 H   -3.22762878    5.24459415   -2.54488391
 H   -4.66181882   -2.18368700    0.42333845
 H   -4.27243581   -0.89267274    1.65655646
 H   -2.75393275   -2.73125633    2.10450060
 H   -1.87509877   -1.30044746    1.60747217
 H   -2.29847593   -3.25522299   -0.70505093
 H   -0.26212932   -3.21799147   -0.91677241
 H    1.27190433    3.60123442    1.38340632
 H    1.96441489    3.93423909   -0.19170008
 H   -0.17756209    1.00790175   -0.07042728
 H    3.72381072    2.47000562    0.76311963
 H    3.05154855   -1.75057750    0.28157628
72
{"name": "Conformer 1406", "statusflags": ["topofail"], "energy": 503.2274426052752}
 C    1.55820880    0.05094122    0.83776703
 C    2.79105685   -0.26326336    0.47007559
 C    3.44649323   -1.50182933    0.62560173
 C    2.70920227   -2.51796965    1.24686348
 C    1.43819772   -2.23208975    1.64981143
 C    0.84900247   -1.01726532    1.48410900
 C    0.67570354    1.13323557    0.53397218
 C    0.51603468   -3.34991705    2.17902664
 O   -0.67917318   -3.08747272    1.41065926
 N   -0.08157681    2.10759339    0.16111409
 C   -0.87483787    3.12826615   -0.22950453
 C   -2.93699189   -3.19653002    0.52942028
 C   -1.29991139    3.22286201   -1.69127645
 C   -1.55046427    1.99543657   -2.43770660
 N   -3.00964609   -4.09852061   -0.61142627
 C   -2.50567577   -1.84051209    0.25376958
 C   -2.58810415    1.02874083   -1.99984362
 C   -2.24503946    0.05342431   -1.16275030
 C   -3.10659109   -0.93554070   -0.70554372
 C   -4.35438605   -0.86225562   -1.16985662
 C   -4.85944934    0.12802553   -2.07962528
 C   -3.87709451    1.05935149   -2.44231532
 C   -1.56253033    6.57285843    0.86696447
 C   -1.81255668    5.32627702    0.36957752
 C   -0.66388293    4.46100601    0.31490272
 C    0.55023499    4.96338918    0.76391407
 C    0.70126796    6.25400673    1.24950380
 C   -0.48274562    7.11196819    1.29430216
 C   -1.89407561   -3.78842415    1.53484361
 C   -4.26058842   -3.36542976    1.28653807
 O    1.29154685    1.05772218   -1.00744457
 O   -2.07411743   -4.64768670    2.25524778
 C    5.03980569   -1.05145103   -1.20560322
 C    6.27113453   -1.13201930   -1.82183710
 C    7.27458869   -1.81483261   -1.23360555
 C    7.06571574   -2.44799984   -0.01824459
 C    5.80812423   -2.36477668    0.60066307
 C    4.76919014   -1.67367841    0.05381278
 C    5.61579807   -3.06245000    1.85248698
 N    5.47014776   -3.63867201    2.87883701
 H    7.84520195   -3.01228731    0.46428592
 H    8.29217748   -1.89699088   -1.68681996
 H    6.46330927   -0.66877667   -2.77833614
 H    4.20758708   -0.52581671   -1.63132452
 H   -4.84212176   -4.19833450    0.80975406
 H   -4.81210221   -2.43236288    1.36822768
 H   -4.07902428   -3.76715090    2.32887317
 H   -0.26883784    8.10625010    1.68784128
 H    1.61171448    6.64051936    1.59718379
 H    1.38242256    4.27779210    0.72613354
 H   -2.72286796    4.94575483    0.02593634
 H   -2.51333076    7.25764743    0.90754135
 H   -4.14907527    1.85268965   -3.11293439
 H   -5.82938778    0.14054216   -2.41389689
 H   -5.06902343   -1.62667031   -0.83744506
 H   -1.20983490   -0.02439320   -0.83830445
 H   -2.41995374   -1.32033735    1.28245837
 H   -1.37447051   -1.93637241    0.01814068
 H   -3.91368474   -3.99851744   -1.04834685
 H   -2.94351033   -5.06303746   -0.15953767
 H   -2.18274678   -4.02433345   -1.25391429
 H   -1.90798696    2.29612786   -3.48841090
 H   -0.62720794    1.44031336   -2.66141872
 H   -0.42989580    3.75659924   -2.19365577
 H   -2.11314389    3.97289298   -1.70151297
 H   -1.96039911    2.82677108    0.20646441
 H    0.82276040    2.52408663   -0.78513587
 H    0.92650196   -4.29602411    1.86242168
 H    0.26574444   -3.19084919    3.21480610
 H   -0.14511707   -0.84702468    1.84562986
 H    3.16209527   -3.48735033    1.38539880
 H    3.41219282    0.51412494   -0.02730313
